.include nand2_delay.net
.param temp=91.4435143912212
.param pvdd=1.0251773291983624
.param toxe_n=9.04522818997131e-10
.param toxm_n=8.77442506638153e-10
.param toxref_n=8.855996797151805e-10
.param toxe_p=9.384903024469308e-10
.param toxm_p=9.220999760912921e-10
.param toxref_p=9.031884142096815e-10
.param toxp_par=6.682386915447985e-10
.param xj_n=1.4566774277853691e-08
.param xj_p=1.4779783497461212e-08
.param ndep_n=6.233398801043673e+18
.param ndep_p=2.980220887479032e+18
.tran 0.01n 10n
.save v(nodea) v(nodeb)
